LAMMPS (24 Mar 2022)
# Initialization
units   lj
dimension 2
atom_style atomic
pair_style lj/cut 2.5
boundary p p p

# System definition
region myreg block -30 30 -30 30 -0.5 0.5
create_box 2 myreg
Created orthogonal box = (-30 -30 -0.5) to (30 30 0.5)
create_atoms 1 random 1500 341431 myreg
Created 1500 atoms
create_atoms 2 random 100 127569 myreg
Created 100 atoms

# Simulation Settings
mass 1 1
mass 2 1
pair_coeff 1 1 1.0 1.0
pair_coeff 2 2 0.5 3.0
neigh_modify every 1 delay 5 check yes
dump mydmp all atom 1000 dump.lammpstrj

# Run
thermo 10
minimize 1.0e-4 1.0e-6 1000 10000
  generated 1 of 1 mixed pair_coeff terms from geometric mixing rule
  update every 1 steps, delay 0 steps, check yes
Step          Temp          E_pair         E_mol          TotEng         Press
0   0              7.8224188e+20  0              7.8224188e+20  2.0859783e+21
Loop time of 0.0407118 on 1 procs for 89 steps with 1600 atoms

Minimization stats:
  Stopping criterion = energy tolerance
  Energy initial, next-to-last, final =
  Force two-norm initial, final = 1.9263834e+27 74.630961
  Force max component initial, final = 1.3241153e+27 21.17765
  Final line search alpha, max atom move = 3.648412e-05 0.00077264791
  Iterations, force evaluations = 89 210

fix mynve all nve
fix mylgv all langevin 1.0 1.0 0.1 1530917
fix myefn all enforce2d
timestep 0.005
thermo 1000
run 10000
  generated 1 of 1 mixed pair_coeff terms from geometric mixing rule
Step          Temp          E_pair         E_mol          TotEng         Press
89   0             -1.7610094      0             -1.7610094     -0.16563174
Averages over the last 6 of 12 rows, steps 6000 to 10089:
Temp E_pair E_mol TotEng Press
0.999687 -1.3231 0 -0.324042 0.77491
Loop time of 1.75866 on 1 procs for 10000 steps with 1600 atoms
